D016
     RDKit          3D

  3  3  0  0  0  0  0  0  0  0999 V2000
    0.7950   -0.3711    0.0584 C   0  0  0  0  0  0  0  0  0  0  0  0
   -0.7453   -0.4677   -0.0541 C   0  0  0  0  0  0  0  0  0  0  0  0
   -0.0496    0.8388   -0.0043 C   0  0  0  0  0  0  0  0  0  0  0  0
  1  2  1  0
  2  3  1  0
  3  1  1  0
M  END
