D018
     RDKit          3D

  4  3  0  0  0  0  0  0  0  0999 V2000
   -0.5851    1.3258   -0.0056 C   0  0  0  0  0  0  0  0  0  0  0  0
    0.0589   -0.0264   -0.0000 C   0  0  0  0  0  0  0  0  0  0  0  0
   -0.7559   -1.2621    0.0094 C   0  0  0  0  0  0  0  0  0  0  0  0
    1.2821   -0.0373   -0.0038 O   0  0  0  0  0  0  0  0  0  0  0  0
  1  2  1  0
  2  3  1  0
  2  4  2  0
M  END
