D019
     RDKit          3D

  4  3  0  0  0  0  0  0  0  0999 V2000
   -0.7832   -1.2249   -0.0471 C   0  0  0  0  0  0  0  0  0  0  0  0
    0.0418    0.0190    0.0026 C   0  0  0  0  0  0  0  0  0  0  0  0
   -0.5424    1.3171   -0.0370 N   0  0  0  0  0  0  0  0  0  0  0  0
    1.2838   -0.1112    0.0815 O   0  0  0  0  0  0  0  0  0  0  0  0
  1  2  1  0
  2  3  1  0
  2  4  2  0
M  END
