D021
     RDKit          3D

  4  3  0  0  0  0  0  0  0  0999 V2000
    1.3028   -0.5871   -0.1313 C   0  0  0  0  0  0  0  0  0  0  0  0
    0.0065   -0.0007    0.3894 C   0  0  0  0  0  0  0  0  0  0  0  0
   -1.1697   -0.8167   -0.1286 C   0  0  0  0  0  0  0  0  0  0  0  0
   -0.1396    1.4045   -0.1295 C   0  0  0  0  0  0  0  0  0  0  0  0
  1  2  1  0
  2  3  1  0
  2  4  1  0
M  END
