D022
     RDKit          3D

  4  3  0  0  0  0  0  0  0  0999 V2000
   -1.2196   -0.7170   -0.1075 C   0  0  0  0  0  0  0  0  0  0  0  0
    0.0063    0.0496    0.3434 C   0  0  0  0  0  0  0  0  0  0  0  0
    1.2420   -0.6889   -0.1103 C   0  0  0  0  0  0  0  0  0  0  0  0
   -0.0286    1.3562   -0.1255 O   0  0  0  0  0  0  0  0  0  0  0  0
  1  2  1  0
  2  3  1  0
  2  4  1  0
M  END
