D025
     RDKit          3D

  4  3  0  0  0  0  0  0  0  0999 V2000
    1.1445   -1.5122   -0.2592 N   0  0  0  0  0  0  0  0  0  0  0  0
    0.4206   -0.5429   -0.0570 C   0  0  0  0  0  0  0  0  0  0  0  0
   -0.4568    0.6109    0.2080 C   0  0  0  0  0  0  0  0  0  0  0  0
   -1.1084    1.4441    0.3892 N   0  0  0  0  0  0  0  0  0  0  0  0
  1  2  3  0
  2  3  1  0
  3  4  3  0
M  END
