D027
     RDKit          3D

  4  3  0  0  0  0  0  0  0  0999 V2000
   -1.6550   -0.3820   -0.4330 O   0  0  0  0  0  0  0  0  0  0  0  0
   -0.6773    0.3825   -0.6515 C   0  0  0  0  0  0  0  0  0  0  0  0
    0.6373    0.1163   -0.1320 C   0  0  0  0  0  0  0  0  0  0  0  0
    1.6950   -0.1167    0.2791 N   0  0  0  0  0  0  0  0  0  0  0  0
  1  2  2  0
  2  3  1  0
  3  4  3  0
M  END
