D029
     RDKit          3D

  4  3  0  0  0  0  0  0  0  0999 V2000
    2.0468    0.1790   -0.2113 C   0  0  0  0  0  0  0  0  0  0  0  0
    0.6001    0.0629   -0.0567 C   0  0  0  0  0  0  0  0  0  0  0  0
   -0.5896   -0.0535    0.0688 C   0  0  0  0  0  0  0  0  0  0  0  0
   -2.0573   -0.1884    0.1992 C   0  0  0  0  0  0  0  0  0  0  0  0
  1  2  1  0
  2  3  3  0
  3  4  1  0
M  END
