D032
     RDKit          3D

  4  3  0  0  0  0  0  0  0  0999 V2000
   -1.6483   -0.4842   -0.0049 N   0  0  0  0  0  0  0  0  0  0  0  0
   -0.7303    0.6195    0.0045 C   0  0  0  0  0  0  0  0  0  0  0  0
    0.6490    0.1216    0.0052 C   0  0  0  0  0  0  0  0  0  0  0  0
    1.7296   -0.2569   -0.0047 N   0  0  0  0  0  0  0  0  0  0  0  0
  1  2  1  0
  2  3  1  0
  3  4  3  0
M  END
